189

Ti     -0.000298210723000     -0.000006658315298      0.000405065830710
Ti      2.602426949751214      1.511474647944010      0.000102173251044
Ti      3.477012789850548     -0.000445933222904      2.569049258977103
Ti      0.874845356687360      1.511417732822465      2.570029061130615
Ti      3.478034720622224     -0.001405169851521     23.478243139331333
Ti      0.874252704262016      1.512325705143112     23.479950746660510
Ti      5.204794447901913     -0.000006971645310      0.000758448559388
Ti      7.808260102328339      1.511705095284846     -0.000642540434535
Ti      8.681838740459296     -0.001232560290243      2.568376636099814
Ti      6.080165918884672      1.511393473768164      2.569385451320879
Ti      8.682522488431394      0.000367328073763     23.477862039545894
Ti      6.082252272219278      1.510944709963059     23.479865385677844
Ti      0.000355690746385      3.024036992558555     -0.000250553555649
Ti      2.601860128616903      4.535642677543308      0.000303860898908
Ti      3.476926704846669      3.023550708321259      2.569224169298686
Ti      0.874107681300358      4.537162631035061      2.569122422289492
Ti      3.478002537977998      3.023194487629755     23.477407420857059
Ti      0.875907775606001      4.535706900839693     23.479635764954235
Ti      5.203828520797160      3.024617816493996     -0.000355974531039
Ti      7.806359939121852      4.535738516702215      0.000311709685876
Ti      8.682774117543138      3.024840574199791      2.567958448710260
Ti      6.079865260623595      4.535505408658845      2.569488274289082
Ti      8.683100151842618      3.024146894643209     23.478674462020130
Ti      6.079182507804560      4.536230962366033     23.479686035202512
Ti      0.001755532831081      6.049666312874725     -0.000645628678554
Ti      2.602671387757290      7.560903953114631     -0.000337003239656
Ti      3.477324258955957      6.048334197332939      2.569125298696572
Ti      0.874288697556327      7.560543512340805      2.568897705306071
Ti      3.477883696314282      6.047323560388603     23.476921675182947
Ti      0.875119414092151      7.560210631043135     23.478896093032997
Ti      5.204588072980965      6.048546195263992      0.000161168135195
Ti      7.807232863689838      7.560503389724640     -0.000775228890345
Ti      8.682281639556663      6.048211993151702      2.568624960272032
Ti      6.079566118261414      7.560105255194032      2.569350592912962
Ti      8.683326213682424      6.049356592606538     23.480078325001408
Ti      6.081005669484106      7.560987425674525     23.477962157368204
C       1.730433807939941     -0.001052542671281      1.280151325428680
C       4.332187027395508      1.510999202561184      1.278842418049901
C       1.731863093072591      0.000853941416316     24.772089427841184
C       4.333712780768785      1.512993568026900     24.771940575944257
C       6.935119957305324      0.001540354237903      1.281734206363220
C       9.535293180901519      1.514331036609104      1.279420289393850
C       6.933118957624580      0.001584492565770     24.770846462973182
C       9.537044556150086      1.510697615407971     24.772017639982451
C       1.730276565693353      3.025637642776192      1.281603196769594
C       4.330964189808745      4.537707290451136      1.281979735443075
C       1.729377274863905      3.023758836231693     24.770260230801512
C       4.331501900001193      4.537415482242711     24.774970698367230
C       6.931702626562705      3.024789214819824      1.280795699461080
C       9.535837510148946      4.536827150708454      1.280489895929367
C       6.935737511561654      3.022937183313814     24.769182695541584
C       9.537604130091150      4.538493253476762     24.771597769274962
C       1.730215572393524      6.049884544622270      1.278599916230688
C       4.332650413724386      7.559605967417310      1.279470870996327
C       1.730280548648082      6.048994269805532     24.771688562167281
C       4.331111050468053      7.559578301301216     24.772182572361228
C       6.932633552185998      6.048574440549026      1.282373793253734
C       9.533915858952581      7.558851908023312      1.281106999160216
C       6.934745013946776      6.050874370997265     24.771786366778091
C       9.534066205290655      7.559100620608437     24.771402418072679
C       6.641486556044692      4.301861397160211     18.142920149570330
C       6.062331371697770      4.645063159448361     16.946684282632752
C       8.138244340453895      5.426254966234933     16.950223214456905
C       8.896015628661900      4.674895578067044     19.210789379031503
C       6.769064451655971      6.003950916257616     14.926003636764605
C       6.754071099201491      7.522215484975548     15.025271598991436
C       6.758038412520794      7.439416268088286      6.986744909609750
C       7.486620337300271      6.347136075970341      6.600800902353536
C       5.532467771380476      5.626820944988186      7.346759482455640
C       4.481070436220780      7.798188195394299      8.012942876893886
C       7.140621874065284      3.838812582300926      6.646959955951844
C       7.340644523532066      3.106788653290840      7.963447634442548
C       3.839162305720027      4.829907016633729     10.109949120378722
C       4.272287268132135      3.583925643289143     10.469021264042309
C       2.065068492587960      3.593029705656379     10.583460093599150
C       1.591035757781133      5.964458728847795      9.939508195390481
C       3.169218043464214      1.452794266936737     11.274080163719422
C       2.728853892353515      1.372514971085609     12.739346990488775
C       8.497096631708432      2.297364133739243     15.888117470143603
C       8.347543078363945      2.410170561088923     10.765181819837492
C       2.480022008683722      2.186996513135366     19.020959065482621
C       1.763076737768927      4.250226276383256     14.378147780983623
C       1.138600010902965      7.350465132677876     16.325933554414782
C       5.559927666890863      7.322470338533360     18.945103648934488
O      10.404538422930365     -0.000798175674156      3.517056168529813
O       2.598372558783055      1.511798127484816      3.516213666012863
O      10.406450067779957     -0.001782388694968     22.536917584288854
O       2.599278745795705      1.513604158453417     22.537819916585480
O       5.200729867336478      0.001144464854636      3.518324030512080
O       7.801836497736075      1.512373176034347      3.519177303756559
O       5.201979685368702      0.001274284165947     22.536441396831140
O       7.805104835053913      1.513689301121306     22.534905138985021
O      10.404851206332278      3.026506324206344      3.517271049749376
O       2.599182707393636      4.537853067989286      3.518281728242958
O      10.405176564264748      3.023658779723494     22.536641570043646
O       2.597651056888738      4.534715825217865     22.537112797323562
O       5.200786721583316      3.024303896563205      3.518370321118770
O       7.801545094691137      4.536390358127630      3.519053442802587
O       5.200996725156157      3.025111763420243     22.536610303149278
O       7.804576646227364      4.536530661975264     22.535757437288989
O      10.404784551054460      6.047390664587170      3.518742643234829
O       2.597423991140743      7.557544287913966      3.515719879131751
O      10.404118400119556      6.048002504052535     22.534864884371302
O       2.599545296727454      7.558965372416802     22.538002616373124
O       5.202084873073989      6.047244130236687      3.518127005415069
O       7.801055981448756      7.558058444333268      3.517798395341493
O       5.200835297233618      6.048050583351326     22.535509062022069
O       7.802941560365080      7.559216194770712     22.533479235954040
O       8.068041077874756      8.056829297269262     15.152146337180918
O       6.095264657826929      2.729432967600995      8.559623883673913
O       1.328393247074262      1.495811963426348     12.876885769817966
O       9.269595065777434      4.481454844086321     14.647980792222125
O       7.141381470990490      3.519504595011654     13.987079109382300
O       7.491419216419996      0.768028895568370     12.631857407503967
O       9.803153913801633      0.495481948473230     11.806102807284377
O       1.646564708576666      4.681090876768358     18.871581821445680
O       0.488986927008503      2.981959957642775     17.530343439032436
O       2.317875909509196      1.845026172434340     15.310930085678860
O       4.194290726816247      3.400577486019455     14.870872569231080
O       3.252337806292237      8.482708769286784     15.227882236933677
O       3.502467878898982      6.201796270224889     16.178672183849070
O       3.183103718566790      6.232933006093889     19.254197513699324
O       3.544866222623568      8.508050130607836     20.132490219463623
N       7.930956790590487      4.797852140439162     18.123602906409150
N       7.005568474645803      5.342859978288838     16.218038715135556
N       5.547175884405342      6.968990056995167      7.456332477010093
N       6.702770787822970      5.234071343168272      6.829547250614980
N       2.458974809097421      4.818434280641773     10.192104292112258
N       3.155990754233700      2.828734388641343     10.750663347448906
N       9.373765677172669      2.410319871488148     13.297442569248080
N       2.819109767249845      3.837479944600081     16.869958349620681
N       3.318453563654165      8.269811023506348     17.683284557404050
H       9.037743737871841      5.932169043349241     16.650665871709521
H       6.243109716720132      3.766115540654294     18.989710431712176
H       5.065263584348594      4.481549512547711     16.574892146133344
H       9.819079158275990      5.182223730540213     18.935944764198641
H       8.475813041579832      5.136971680902496     20.116481074042824
H       9.119804589300255      3.614632326141881     19.399517259520021
H       7.544782418554201      5.700419562164513     14.235324077630553
H       5.803865496504408      5.628866106643116     14.571604387484820
H       6.257369060951341      7.909093270961883     14.106188760079089
H       6.147109902728993      7.854660596393903     15.877369170297520
H       8.291495824202824      8.446288658143928     14.304842208787070
H       4.735729561538355      4.964020558559922      7.654999782544212
H       7.002880111893860      8.494609107430747      6.978380917744612
H       8.491877508024279      6.278984785830474      6.186667353384255
H       3.653729224667201      7.157200903173188      8.324827504370424
H       4.864395313119919      8.364690151523265      8.879866621946805
H       4.109252435853969      8.487239365681072      7.244583931925436
H       6.404297798401931      3.317044479147794      6.011951400330590
H       8.083689889068612      3.878595284889706      6.075529580168712
H       7.966150661925790      2.228169953794044      7.743744461118744
H       7.896683374538558      3.741951606770725      8.662954257608872
H       5.989837904114577      1.791743538260538      8.427134576383088
H       1.051214356482638      3.271430433060973     10.779168052039177
H       4.391680134640924      5.718593514489694      9.862637226451962
H       5.268461708198116      3.181702042138245     10.574018891930185
H       0.547588090825717      5.675148962458899     10.119317512323049
H       1.859503234251809      6.784582488408899     10.623846747875278
H       1.695366764838564      6.292728587721356      8.890627868009773
H       2.504323387202430      0.834017026245229     10.641883469550597
H       4.208631142692470      1.098533204014072     11.168656166583817
H       3.081369103417357      0.402310710507053     13.137673674045143
H       3.264553571977623      2.134361119215009     13.292012147065666
H       0.966270604242439      0.632852534173415     13.063752038891183
F       7.813738101028000      2.986437509078056     16.825438653104325
F       9.709724729426068      2.036976893458272     16.349275970307197
F       7.850050944796889      1.134809968021772     15.697683848056917
F       7.566846916092901      3.471353422703485     11.048163583329535
F       9.483003730698661      2.866691934541192     10.151514147452710
F       7.689264053807643      1.618701045840689      9.865981742369298
F       1.615099583912480      1.870436051203454     20.021864904188355
F       3.649570813889452      2.574254267293354     19.577674129010585
F       2.696858706360405      1.083278391619715     18.288511567663246
F       0.587140710400351      4.368293196090218     14.905776405168680
F       2.286736305250865      5.480075893167287     14.183801823342209
F       1.637917447811491      3.672273749343383     13.141557119374012
F       0.753286912627144      6.740768123552383     15.175181522496816
F       0.497559533450551      8.529463804046982     16.407880438758923
F       0.734147824922587      6.564605843531107     17.363946718396985
F       5.923751444085785      6.678763519232171     17.825454756312940
F       6.214929039951875      8.507006034981696     18.988343853485507
F       5.961399775391365      6.580783978920396     20.017127206274552
S       8.535967951285441      3.331853531260300     14.311333966022469
S       8.755432697741147      1.381625420346971     12.282312517552208
S       1.708956158659906      3.558312494531866     17.983653078512518
S       2.871810942064852      3.169799294340746     15.438410680040111
S       3.011915504359441      7.552383608075036     16.301982555688966
S       3.694009130855336      7.558481462827859     19.047370706664594
