189

Ti      0.000022828462494     -0.001271279239096      0.000500199416398
Ti      2.602502396514935      1.510195632775566     -0.000163489804535
Ti      3.476102343063509     -0.000881211624636      2.566800783909886
Ti      0.875981693044476      1.511344291116296      2.567003280587331
Ti      3.478642756229079     -0.002548223841945     23.478573445630047
Ti      0.873673566957208      1.512729277613590     23.479396101142342
Ti      5.204888017712010     -0.000476661789297      0.001974640855798
Ti      7.808881254193492      1.512011534894551     -0.000756550129465
Ti      8.681105688393270     -0.002140329681527      2.563459075735770
Ti      6.082496692676151      1.511276237425755      2.565668334712218
Ti      8.683240749831032     -0.000232385624720     23.477149808557996
Ti      6.083722780604175      1.508878564632323     23.479495437123241
Ti      0.000649248349427      3.024100875247950     -0.001658385617209
Ti      2.601902571650136      4.534923319229645     -0.000231836228726
Ti      3.477328425224614      3.023396445467204      2.565208326935355
Ti      0.873673106179229      4.538866824843942      2.566229644744380
Ti      3.477633374959604      3.022169509863143     23.475781836964615
Ti      0.876729147884354      4.535383373799209     23.479020004351305
Ti      5.203708280804644      3.025659909190117     -0.000680136333270
Ti      7.807031651314863      4.534685379282238      0.001582189896666
Ti      8.684281210202045      3.025772004133704      2.564426872392648
Ti      6.081100538449444      4.535194689306573      2.565399423277051
Ti      8.684938902411760      3.023197393634555     23.480038996333150
Ti      6.078087069361288      4.536434962887382     23.478780983968583
Ti      0.003928651603209      6.051150763969800     -0.002388173720372
Ti      2.603118537385681      7.561982936041404     -0.001393636897250
Ti      3.477759666772152      6.048396299978252      2.565757722497502
Ti      0.874146401450867      7.560214274823907      2.566425342201319
Ti      3.478693583004050      6.046194310269104     23.475656692123763
Ti      0.874824214818340      7.559898002792967     23.476715467052252
Ti      5.204223866794395      6.049390717496141      0.000268497000002
Ti      7.807344035738107      7.560772450825727     -0.002192483200131
Ti      8.683189036578744      6.047794217352228      2.565506209209572
Ti      6.081961025933034      7.559898774061941      2.565700300932527
Ti      8.683884696449050      6.050637647329432     23.482369140298530
Ti      6.081750828241230      7.561546190256170     23.476001977786360
C       1.728907787448641     -0.002083065673089      1.284835534952502
C       4.330980333859529      1.509879470148987      1.281084099451699
C       1.733071130856175      0.002304417571221     24.775207567625834
C       4.335528345272536      1.514140235348430     24.773399323038817
C       6.936397061538067      0.001844756456907      1.286167130413736
C       9.532812542771724      1.515143835104774      1.286021784515332
C       6.930358379002795      0.003079929211854     24.770440929999019
C       9.535838309975944      1.510875884987953     24.771285375176198
C       1.728939596485062      3.026711082304751      1.287350302403719
C       4.329242970353349      4.538041253501502      1.287177300821310
C       1.727137605263435      3.023861432891529     24.768184143783266
C       4.330926779216664      4.539864663523092     24.777273826250955
C       6.928271165470683      3.026796697979599      1.287196560582075
C       9.532393766527747      4.536558594740407      1.283829845473226
C       6.936772179702798      3.022791889213752     24.767545744202643
C       9.538194868280375      4.542933325391457     24.771425763490917
C       1.731124138686521      6.052505240642672      1.281171550320993
C       4.332509198941818      7.558303557352248      1.284182942859226
C       1.730373495896510      6.049820428940760     24.772921883878531
C       4.328942734851577      7.558261084700029     24.772773198309672
C       6.928297260084231      6.049063438847580      1.289923209028949
C       9.528962472050173      7.558412226332356      1.283244499303026
C       6.933033195240550      6.053860847942187     24.771868866877625
C       9.530653419352841      7.557663838928070     24.771235010519995
C       6.640232345613688      4.314244307835523     18.153989925099268
C       6.065246148285913      4.636352919195711     16.940554451222020
C       8.136020283378423      5.433871212264155     16.958840996684259
C       8.894169316412480      4.676259019032752     19.211553649503202
C       6.756969604470896      6.013603690845730     14.932651553053132
C       6.749979940982527      7.522221959023539     15.020400758432043
C       6.760255390239997      7.438923372403442      6.988378354372639
C       7.487496820109574      6.344223335759210      6.601576399213896
C       5.528482935099217      5.627087850523428      7.340128728504774
C       4.481120386125284      7.799468293886812      8.006360962560988
C       7.140306431702760      3.839793956568089      6.641371687225713
C       7.341356711490385      3.110935942211230      7.943714869032063
C       3.837174659180538      4.828890300642452     10.116826068945993
C       4.270069327408613      3.583824605351433     10.477112080666457
C       2.065477859310297      3.591972122443373     10.581732070463676
C       1.590228789410374      5.961955833111229      9.940841329032612
C       3.170895575101412      1.449787589393615     11.267097255047450
C       2.727690836169082      1.358404618693305     12.735445330915310
C       8.499446543671608      2.280661647503855     15.884952229112770
C       8.350585814588776      2.395179969352236     10.782954865265364
C       2.476992004966474      2.181639068313945     19.023910059323626
C       1.807307579675404      4.254764896206991     14.385096549537717
C       1.134635116023359      7.351557940735266     16.323890679163135
C       5.555114655153124      7.338179996785220     18.959908164837309
O      10.402127154904960     -0.000295622772963      3.523159436846426
O       2.597155530053457      1.511616513217751      3.520208915873021
O      10.406028079420551     -0.004171547266311     22.541820481828466
O       2.599131767166820      1.514550529332609     22.543519820442356
O       5.199108963630351      0.001969485269847      3.526220948811670
O       7.795577393426461      1.513728123421959      3.526706584898807
O       5.203904798199706      0.000781389692203     22.540278811600182
O       7.805689917964668      1.515769627520000     22.534610295034433
O      10.400746470329850      3.029694287849914      3.523910517899566
O       2.597729557943675      4.538235118843220      3.525921198084819
O      10.404604479674706      3.023034514153977     22.537079771515131
O       2.595999374238046      4.533033738389122     22.539160128255133
O       5.199909556669645      3.025033584781406      3.529895959884218
O       7.799446247981449      4.535733126197161      3.528523688803688
O       5.201323955580882      3.027912574229958     22.536474149062997
O       7.805095716595359      4.535373908246824     22.536011080957365
O      10.402225472904766      6.046040510071109      3.525056442852002
O       2.596459089390626      7.554470660960728      3.521142888838146
O      10.402218128267625      6.046703193989287     22.534330918654973
O       2.599272074435824      7.555457650765597     22.544916944231446
O       5.201472994072544      6.044410674844951      3.528890738112832
O       7.797613422695041      7.554854959665521      3.525945653832518
O       5.201367736466040      6.045909620352350     22.537829670196174
O       7.801794905180150      7.556962217949889     22.530837084301545
O       8.068219800868361      8.036441449578636     15.149307866334508
O       6.089094049919468      2.737634187008901      8.546155746411996
O       1.351787336626908      1.485344233712187     12.867718054508609
O       9.145608704661088      4.502618653600188     14.628526933877087
O       7.135659064984238      3.508898837410229     13.975829229548596
O       7.489562069225681      0.768702948604681     12.628311280083123
O       9.784916884295150      0.490546226409372     11.795582400883251
O       1.635521999367269      4.668060839297209     18.870572937973215
O       0.512715359922617      3.004221795834175     17.558122187221052
O       2.314890683440892      1.853012146933111     15.328525425175512
O       4.194052577815312      3.401966897020938     14.873857552078231
O       3.257514620609840      8.476892222649488     15.224366441105881
O       3.515424915365367      6.213164198603273     16.181512144667067
O       3.196696160013652      6.242732826576853     19.255271473753162
O       3.548877576366603      8.504066926079833     20.125485712680103
N       7.925562316351153      4.820112832907802     18.139309956071315
N       7.003087849424136      5.340068854949281     16.214921198053212
N       5.545259169423735      6.964910873634182      7.458772628040854
N       6.701766149933250      5.236690213937785      6.833106673918476
N       2.452130373389594      4.820499096075195     10.194820185352233
N       3.156613609860714      2.830023716898377     10.750868361905365
N       9.371628648668443      2.410413904804852     13.287430089482557
N       2.813510275439994      3.829652727800311     16.877029668754474
N       3.328058649291389      8.238206110739373     17.665156772112283
H       9.053391316821122      5.927920058215352     16.660052741365547
H       6.230678912155490      3.749488841866810     18.989836175164868
H       5.058397701236859      4.470019959190340     16.570854308377527
H       9.829211824834930      5.176376863366523     18.949438718989839
H       8.467794716733948      5.125419041773939     20.114027901265260
H       9.129697748899538      3.620934120790133     19.387406312910834
H       7.548167211077809      5.739773373420541     14.232438279932442
H       5.790990248709350      5.628542016177255     14.588657452679959
H       6.246501298947471      7.912358836842604     14.125309200035815
H       6.160323179214303      7.882510903464776     15.870136048205016
H       8.318345320530767      8.471557709697686     14.299706260236420
H       4.721469975986653      4.963323640569967      7.635801917970733
H       6.987044082184993      8.495047807520066      6.936860309374715
H       8.466806733297062      6.282963887236447      6.153092597672366
H       3.646565652497409      7.161745536479261      8.318279937966224
H       4.849471439168728      8.355149573390799      8.875737601520125
H       4.106123155431725      8.479469616780563      7.226559096264073
H       6.416214098841173      3.330039636603255      5.980460218843719
H       8.069315929584015      3.890336575454157      6.062100572344391
H       7.987036328570118      2.250433529636970      7.724634611352773
H       7.872622143292060      3.764571631974885      8.650478537346547
H       5.940560561310761      1.764960731626210      8.440154610230579
H       1.052847445661925      3.273197529377925     10.789295848626443
H       4.401447341312585      5.727643622634035      9.906907888664067
H       5.263541883759058      3.185243816379879     10.603397574389016
H       0.554638821578325      5.683693745415665     10.133659013797750
H       1.853651579711134      6.771413693344182     10.628009912569308
H       1.676112221907262      6.282511644483629      8.897634453000025
H       2.510992428564047      0.844637984749740     10.627698984270328
H       4.212079699744413      1.113707581142581     11.178804306383931
H       3.104867361174203      0.410624713587626     13.149035287580517
H       3.325225429643232      2.121590630234788     13.257953442735200
H       0.910352636559887      0.618564933770570     13.068531227170340
F       7.827997085005912      2.951443178193211     16.805185266862047
F       9.678495121815198      2.011197787806919     16.315110000963436
F       7.846659459566541      1.151670575596868     15.696361557900149
F       7.566588198655151      3.475000241241982     11.045406014772478
F       9.484571672715562      2.870241771117687     10.149660565599673
F       7.695383368388799      1.609456099147131      9.875482662976587
F       1.615130681971143      1.873885403718152     20.022074726464510
F       3.651291457750080      2.577072771157713     19.577069786175606
F       2.688586745250264      1.115818200834627     18.291985499852004
F       0.694043983853381      4.357585292200657     14.926841319166325
F       2.296181796131668      5.471163367420168     14.161901000694090
F       1.636966413498566      3.689630763203861     13.137101236675495
F       0.743266105034389      6.756735897134885     15.180424832144505
F       0.497899111854789      8.528075438049123     16.408439411389395
F       0.732904303034345      6.568296701339817     17.363000927462259
F       5.916210545744266      6.703185130018292     17.835429418623100
F       6.217736891221476      8.507667353395840     18.990611518981915
F       5.966217857287772      6.582913671405088     20.015189135734595
S       8.521347814307683      3.320840512716845     14.314670561765549
S       8.761992363372876      1.381182204011966     12.289252822712255
S       1.717034585340909      3.557948048166998     17.990237710702161
S       2.874846114895701      3.169980445673768     15.435838912998799
S       3.010255629646163      7.553430439689910     16.304189185176476
S       3.694244811673168      7.558808226910876     19.058160479022206
