189

Ti     -0.000226942205756      0.000020583034669      0.000432975722775
Ti      2.602533953296167      1.511773230961582      0.000128521800126
Ti      3.477072293631235     -0.000297161456194      2.569457758302457
Ti      0.874693025809615      1.511647393284142      2.570498841345151
Ti      3.477908033440692     -0.001040032347239     23.478322137996106
Ti      0.874543791541634      1.512229010246763     23.479933562094558
Ti      5.204742314670140      0.000205417528822      0.000476906825195
Ti      7.807965836243215      1.511796870305513     -0.000478447562563
Ti      8.681943943494343     -0.000860114985238      2.569081498961660
Ti      6.079690084253730      1.511510918487154      2.570051350340078
Ti      8.682475465700895      0.000332168564226     23.478017936691082
Ti      6.081674979815846      1.511351185866781     23.479948539188552
Ti      0.000316259169899      3.024100722400679      0.000022279316538
Ti      2.601986783775362      4.535765292493189      0.000277151424607
Ti      3.476946844767590      3.023730506175114      2.569880067968090
Ti      0.874244096545703      4.536820622694570      2.569779746254801
Ti      3.478006630680230      3.023517812620061     23.477695496342680
Ti      0.875732509324648      4.535804274809771     23.479706021100540
Ti      5.204109719655102      3.024367693243653     -0.000193741327438
Ti      7.806464889054396      4.535883372237421      0.000285635493751
Ti      8.682548096648761      3.024730456177207      2.568653334744163
Ti      6.079634913822189      4.535743352986001      2.570168731213407
Ti      8.682799062908687      3.024283838924040     23.478435110149725
Ti      6.079584922801240      4.536276305019515     23.479688575148003
Ti      0.001324203640024      6.049219183989697     -0.000334533283023
Ti      2.602630697907184      7.560804896471786     -0.000121814453255
Ti      3.477161869287274      6.048255106767583      2.569735203703684
Ti      0.874367203459326      7.560593922402990      2.569495586880859
Ti      3.477863952771399      6.047686914059810     23.477198886027409
Ti      0.875416316117613      7.560352785968621     23.479336417122571
Ti      5.204622656410971      6.048284582245502      0.000319294448416
Ti      7.807192619321838      7.560522442568586     -0.000513402173632
Ti      8.682102717114367      6.048379293542102      2.569111294317175
Ti      6.079318428573235      7.560112259193420      2.569949691534527
Ti      8.683104902989255      6.049065911477278     23.479618406583608
Ti      6.080865910799497      7.560834431572615     23.478491012794770
C       1.730594390084110     -0.000832490560285      1.279511719120349
C       4.332281496325217      1.511314569658696      1.278525323800179
C       1.731186108612294      0.000288043639721     24.771713380391258
C       4.333353699672306      1.512539141316231     24.771694335067647
C       6.935212644331449      0.001201331387598      1.280900005179054
C       9.535916845837249      1.513975843071504      1.278880110475180
C       6.933687583947768      0.001390926888564     24.770756041928852
C       9.536998827903503      1.511002875299289     24.772054356884642
C       1.730320214981654      3.025275602937046      1.280474530473622
C       4.331547215674071      4.537247591426295      1.281109704567506
C       1.729790719561318      3.023604388444095     24.770633025685271
C       4.331739287906755      4.537198888842277     24.774141385189193
C       6.932737415367183      3.024402581804528      1.279761209079797
C       9.536003149142143      4.536797336868423      1.279902598178190
C       6.935357771325914      3.023202867138248     24.769701774014504
C       9.537528159610003      4.537578983697337     24.771508897413433
C       1.730032024411154      6.049642516396637      1.278432666961027
C       4.332814215489509      7.559905891557317      1.278708252711559
C       1.730432816471993      6.048802681052818     24.771306441760704
C       4.331628028625340      7.559882130707488     24.771969611816459
C       6.933479841578512      6.048396644102194      1.280964810924645
C       9.534967964218660      7.559179401774475      1.280682254372468
C       6.934664252777567      6.050313267702359     24.771592954128209
C       9.535022576650062      7.559184030385045     24.771428808284313
C       6.642126684191555      4.299595366143659     18.140422165125671
C       6.062206093534364      4.646913246913052     16.947957688810916
C       8.137935727180388      5.424486087562701     16.948667667078386
C       8.896368448756649      4.674944076630338     19.210750569666651
C       6.770471388628774      6.002272740172783     14.925225220562131
C       6.754556381575136      7.522858474078593     15.026054527404195
C       6.757746613419370      7.439427740349621      6.986304027110906
C       7.486204404347556      6.347858017746809      6.600524770890794
C       5.533180111633402      5.627216053466104      7.348025056515049
C       4.480601066210897      7.798135204073422      8.013819104768967
C       7.140594303896043      3.838447230737907      6.647350682800740
C       7.340782834654508      3.105911432039447      7.967102933114294
C       3.839655080119297      4.830301068361784     10.108931826286756
C       4.273059824011485      3.584168736848467     10.467554381505721
C       2.064797321201036      3.593197913258008     10.583513216490317
C       1.590910079886376      5.964849888476076      9.938978165098092
C       3.168820373185956      1.453220464130976     11.275369660773638
C       2.729753716037451      1.373986412694171     12.739983674002147
C       8.496323914005814      2.300642590135242     15.887716983089740
C       8.346745177422694      2.412872023846213     10.761905478882296
C       2.480470741346035      2.188795695543985     19.020426464186301
C       1.757136920369592      4.248897390089233     14.375739230851503
C       1.139342832721485      7.349953447599464     16.326584705986050
C       5.560964615090215      7.319300662500068     18.942441510301869
O      10.404935745050633     -0.000947666389929      3.516140119756448
O       2.598652552067011      1.511826080760819      3.515538941682448
O      10.406263717806691     -0.001004257232796     22.536613654923645
O       2.599416865840886      1.513386446390357     22.537185864828718
O       5.201021727661927      0.000873185676332      3.517033220358351
O       7.802646700721236      1.512212721593309      3.517498150463833
O       5.201859516587375      0.000962950492659     22.536262835551952
O       7.804783942643749      1.513246836399751     22.535121151467585
O      10.405453396611327      3.025825810050786      3.516360639414904
O       2.599325960154906      4.537495533370834      3.516733305684761
O      10.405429360751363      3.023843895754667     22.536381620115524
O       2.598259725051760      4.535218912115474     22.536598519795781
O       5.201122639189271      3.024186573391116      3.516659816878432
O       7.802080028951738      4.536386885435334      3.517470005143165
O       5.200980051973226      3.024627443044181     22.536451215586322
O       7.804246276485594      4.536275930733822     22.535587498307553
O      10.405273818291580      6.047826251425675      3.517330450076242
O       2.597725967516542      7.558289920824120      3.515214192827955
O      10.404580153668958      6.048152002349708     22.534972448076665
O       2.599401334795231      7.559544121201259     22.536856152243701
O       5.202014738693636      6.047757457949199      3.516556604205673
O       7.801802152564401      7.558760313224338      3.516432064691606
O       5.200786315240273      6.048290479030738     22.535404097061903
O       7.803188509733589      7.559720995910748     22.534195292353335
O       8.068331277220560      8.059997356424056     15.153023374181139
O       6.096240889795982      2.728545909869793      8.561899368276265
O       1.324320196387136      1.498582751624063     12.878671466833090
O       9.295037451793092      4.479558734524264     14.651702570081166
O       7.142011419136426      3.520993720247508     13.988450705702620
O       7.491503675494193      0.767754396467224     12.632393420823989
O       9.806644780016340      0.496276519595608     11.807819466063663
O       1.648619307264444      4.683813795887413     18.872035278685598
O       0.483560919913571      2.977120857492015     17.524684869756218
O       2.318239715000269      1.843756111994373     15.308145848971391
O       4.194561595019414      3.400312265043168     14.870098727767527
O       3.251241753830825      8.483573914806126     15.228276233056588
O       3.500263671953250      6.199453161302515     16.178192388539134
O       3.180857743101440      6.230639217193708     19.253998323751883
O       3.544105606921486      8.509004523675918     20.133736934238236
N       7.931949996857597      4.794235507475161     18.120813791770907
N       7.006638632451722      5.343249063216926     16.219124400662327
N       5.547288912506144      6.969464734971630      7.455714989485310
N       6.703606528831695      5.233789023859891      6.828526899875335
N       2.460407607722822      4.818115300666967     10.191544510781059
N       3.155435940662171      2.828351358955325     10.750363474166900
N       9.374331298721032      2.410337023469590     13.299155701714771
N       2.820169143570316      3.838728122603388     16.868501395247616
N       3.316933699811308      8.275576914390570     17.686801967389837
H       9.036649144344830      5.934810790804110     16.648511772788709
H       6.243135079964709      3.769229067056564     18.991430642370595
H       5.065938606357807      4.483780275565548     16.575899657742720
H       9.818274816553691      5.182631884612635     18.933138317177185
H       8.477788339624510      5.138662245877778     20.117503006232592
H       9.116990789731325      3.613882375369617     19.402421566712718
H       7.544546861093872      5.693457692640790     14.233693592323439
H       5.804918681504493      5.628619870319333     14.567095466519666
H       6.262089026453439      7.905891476922421     14.105478845256521
H       6.144819238127359      7.848868296599774     15.878535731141850
H       8.286139135222760      8.442711834142314     14.301861175149096
H       4.736682831096342      4.963042303050512      7.659215230691009
H       7.006089792778387      8.494242697637151      6.987788730858053
H       8.492835843129622      6.277591589787456      6.191761762269814
H       3.655339974034689      7.155651731310772      8.326535552269856
H       4.866404499189826      8.364386241594426      8.880048078000616
H       4.111052276591519      8.490246416664295      7.247508177785172
H       6.402376844318186      3.316517414561181      6.018697797168572
H       8.084339364364713      3.877620605342885      6.078584599996706
H       7.959344607352473      2.223845204128446      7.748505632272528
H       7.901044258371973      3.740028024643755      8.665520576278283
H       5.999187523619994      1.790746939158958      8.423350722819011
H       1.050719482563533      3.273015759044795     10.778022806879598
H       4.391116871215334      5.719986411702571      9.855225436623446
H       5.269611746883790      3.181829891290616     10.567715523786969
H       0.547787107445380      5.674074296824894     10.117112600637643
H       1.860763151359163      6.786774938676714     10.621936673619471
H       1.698439105840338      6.294814197860066      8.892128689681915
H       2.505035203934658      0.834114459643988     10.645030996180038
H       4.206867126903938      1.095030417254267     11.166635131641122
H       3.075790222793479      0.401202843172344     13.133156555353789
H       3.253276667784253      2.139176791902567     13.301237783962254
H       0.978015173784080      0.629147405021406     13.063168025568061
F       7.811105257081577      2.993100611932187     16.829426129302174
F       9.716227170407661      2.041294375519098     16.355269816948077
F       7.850115333994551      1.131176562488799     15.697688796134736
F       7.567157767360042      3.470618216146011     11.048729733481670
F       9.482510989099367      2.865975601181495     10.151901730668804
F       7.688451716452195      1.620360725398390      9.864475566002325
F       1.614875911576795      1.869699643479825     20.022155661796088
F       3.649306716108672      2.573544691449132     19.577902104026702
F       2.698126120767939      1.077574039907758     18.287761568781562
F       0.564865095913118      4.370382357524027     14.902456617852826
F       2.285474237918623      5.482008201307266     14.187716052843749
F       1.638260689523236      3.669318693275230     13.142095573207053
F       0.754799338581963      6.737674646815728     15.173818369824636
F       0.497291475118522      8.529730865970214     16.407831668569326
F       0.734343485302016      6.564388432264117     17.363949765580120
F       5.925300050851869      6.674766509720020     17.823906778082801
F       6.214641698968173      8.507136436052145     18.988141386167989
F       5.960375081837938      6.580320049861145     20.017622754050709
S       8.537887514396774      3.333113651547636     14.310630032320645
S       8.753873588040358      1.381727085028096     12.281280592635648
S       1.707948970011663      3.558665373437221     17.982878619593887
S       2.871476314605689      3.169720513342010     15.438725549898672
S       3.012133812311863      7.552193067148819     16.301652675775475
S       3.694109065371833      7.558253486287075     19.045270225352091
